.SUBCKT c1355 G1 G10 G11 G12 G13 N384 N385 N386 N387 N388 N389 N390 N391 N392 N393 N394 N395 N396 N397 N398 N399 N400 N401 N402 N403 N404 N405 N406 N407 N408 N409 N410 N411 N412 N413 N414 N415 G14 G15 G16 G17 G18 G19 G2 G20 G21 G22 G23 G24 G25 G26 G27 G28 G29 G3 G30 G31 G32 G33 G34 G35 G36 G37 G38 G39 G4 G40 G41 G5 G6 G7 G8 G9 VDD GND 
M1 U254/a_2_6# n230 VDD VDD pmos W=0.5u L=0.05u AD=0p PD=0u AS=0p PS=0u 
M2 VDD n232 U254/a_2_6# VDD pmos W=0.5u L=0.05u AD=0p PD=0u AS=0p PS=0u 
M3 n305 U254/a_2_6# VDD VDD pmos W=0.5u L=0.05u AD=0p PD=0u AS=0p PS=0u 
M4 U254/a_9_6# n230 U254/a_2_6# GND nmos W=0.5u L=0.05u AD=0p PD=0u AS=0p PS=0u 
M5 GND n232 U254/a_9_6# GND nmos W=0.5u L=0.05u AD=0p PD=0u AS=0p PS=0u 
M6 n305 U254/a_2_6# GND GND nmos W=0.25u L=0.05u AD=0p PD=0u AS=0p PS=0u 
M7 U255/a_2_6# n231 VDD VDD pmos W=0.5u L=0.05u AD=0p PD=0u AS=0p PS=0u 
M8 VDD n233 U255/a_2_6# VDD pmos W=0.5u L=0.05u AD=0p PD=0u AS=0p PS=0u 
M9 n350 U255/a_2_6# VDD VDD pmos W=0.5u L=0.05u AD=0p PD=0u AS=0p PS=0u 
M10 U255/a_9_6# n231 U255/a_2_6# GND nmos W=0.5u L=0.05u AD=0p PD=0u AS=0p PS=0u 
M11 GND n233 U255/a_9_6# GND nmos W=0.5u L=0.05u AD=0p PD=0u AS=0p PS=0u 
M12 n350 U255/a_2_6# GND GND nmos W=0.25u L=0.05u AD=0p PD=0u AS=0p PS=0u 
M13 VDD n293 U256/a_2_6# VDD pmos W=0.5u L=0.05u AD=0p PD=0u AS=0p PS=0u 
M14 n222 U256/a_2_6# VDD VDD pmos W=1u L=0.05u AD=0p PD=0u AS=0p PS=0u 
M15 GND n293 U256/a_2_6# GND nmos W=0.25u L=0.05u AD=0p PD=0u AS=0p PS=0u 
M16 n222 U256/a_2_6# GND GND nmos W=0.5u L=0.05u AD=0p PD=0u AS=0p PS=0u 
M17 VDD n304 U257/a_2_6# VDD pmos W=0.5u L=0.05u AD=0p PD=0u AS=0p PS=0u 
M18 n223 U257/a_2_6# VDD VDD pmos W=1u L=0.05u AD=0p PD=0u AS=0p PS=0u 
M19 GND n304 U257/a_2_6# GND nmos W=0.25u L=0.05u AD=0p PD=0u AS=0p PS=0u 
M20 n223 U257/a_2_6# GND GND nmos W=0.5u L=0.05u AD=0p PD=0u AS=0p PS=0u 
M21 VDD n314 U258/a_2_6# VDD pmos W=0.5u L=0.05u AD=0p PD=0u AS=0p PS=0u 
M22 n224 U258/a_2_6# VDD VDD pmos W=1u L=0.05u AD=0p PD=0u AS=0p PS=0u 
M23 GND n314 U258/a_2_6# GND nmos W=0.25u L=0.05u AD=0p PD=0u AS=0p PS=0u 
M24 n224 U258/a_2_6# GND GND nmos W=0.5u L=0.05u AD=0p PD=0u AS=0p PS=0u 
M25 VDD n323 U259/a_2_6# VDD pmos W=0.5u L=0.05u AD=0p PD=0u AS=0p PS=0u 
M26 n225 U259/a_2_6# VDD VDD pmos W=1u L=0.05u AD=0p PD=0u AS=0p PS=0u 
M27 GND n323 U259/a_2_6# GND nmos W=0.25u L=0.05u AD=0p PD=0u AS=0p PS=0u 
M28 n225 U259/a_2_6# GND GND nmos W=0.5u L=0.05u AD=0p PD=0u AS=0p PS=0u 
M29 VDD n341 U260/a_2_6# VDD pmos W=0.5u L=0.05u AD=0p PD=0u AS=0p PS=0u 
M30 n226 U260/a_2_6# VDD VDD pmos W=1u L=0.05u AD=0p PD=0u AS=0p PS=0u 
M31 GND n341 U260/a_2_6# GND nmos W=0.25u L=0.05u AD=0p PD=0u AS=0p PS=0u 
M32 n226 U260/a_2_6# GND GND nmos W=0.5u L=0.05u AD=0p PD=0u AS=0p PS=0u 
M33 VDD n349 U261/a_2_6# VDD pmos W=0.5u L=0.05u AD=0p PD=0u AS=0p PS=0u 
M34 n227 U261/a_2_6# VDD VDD pmos W=1u L=0.05u AD=0p PD=0u AS=0p PS=0u 
M35 GND n349 U261/a_2_6# GND nmos W=0.25u L=0.05u AD=0p PD=0u AS=0p PS=0u 
M36 n227 U261/a_2_6# GND GND nmos W=0.5u L=0.05u AD=0p PD=0u AS=0p PS=0u 
M37 VDD n358 U262/a_2_6# VDD pmos W=0.5u L=0.05u AD=0p PD=0u AS=0p PS=0u 
M38 n228 U262/a_2_6# VDD VDD pmos W=1u L=0.05u AD=0p PD=0u AS=0p PS=0u 
M39 GND n358 U262/a_2_6# GND nmos W=0.25u L=0.05u AD=0p PD=0u AS=0p PS=0u 
M40 n228 U262/a_2_6# GND GND nmos W=0.5u L=0.05u AD=0p PD=0u AS=0p PS=0u 
M41 VDD n365 U263/a_2_6# VDD pmos W=0.5u L=0.05u AD=0p PD=0u AS=0p PS=0u 
M42 n229 U263/a_2_6# VDD VDD pmos W=1u L=0.05u AD=0p PD=0u AS=0p PS=0u 
M43 GND n365 U263/a_2_6# GND nmos W=0.25u L=0.05u AD=0p PD=0u AS=0p PS=0u 
M44 n229 U263/a_2_6# GND GND nmos W=0.5u L=0.05u AD=0p PD=0u AS=0p PS=0u 
M45 VDD n325 U264/a_2_6# VDD pmos W=0.5u L=0.05u AD=0p PD=0u AS=0p PS=0u 
M46 n230 U264/a_2_6# VDD VDD pmos W=1u L=0.05u AD=0p PD=0u AS=0p PS=0u 
M47 GND n325 U264/a_2_6# GND nmos W=0.25u L=0.05u AD=0p PD=0u AS=0p PS=0u 
M48 n230 U264/a_2_6# GND GND nmos W=0.5u L=0.05u AD=0p PD=0u AS=0p PS=0u 
M49 VDD n375 U265/a_2_6# VDD pmos W=0.5u L=0.05u AD=0p PD=0u AS=0p PS=0u 
M50 n231 U265/a_2_6# VDD VDD pmos W=1u L=0.05u AD=0p PD=0u AS=0p PS=0u 
M51 GND n375 U265/a_2_6# GND nmos W=0.25u L=0.05u AD=0p PD=0u AS=0p PS=0u 
M52 n231 U265/a_2_6# GND GND nmos W=0.5u L=0.05u AD=0p PD=0u AS=0p PS=0u 
M53 VDD n326 U266/a_2_6# VDD pmos W=0.5u L=0.05u AD=0p PD=0u AS=0p PS=0u 
M54 n232 U266/a_2_6# VDD VDD pmos W=1u L=0.05u AD=0p PD=0u AS=0p PS=0u 
M55 GND n326 U266/a_2_6# GND nmos W=0.25u L=0.05u AD=0p PD=0u AS=0p PS=0u 
M56 n232 U266/a_2_6# GND GND nmos W=0.5u L=0.05u AD=0p PD=0u AS=0p PS=0u 
M57 VDD n376 U267/a_2_6# VDD pmos W=0.5u L=0.05u AD=0p PD=0u AS=0p PS=0u 
M58 n233 U267/a_2_6# VDD VDD pmos W=1u L=0.05u AD=0p PD=0u AS=0p PS=0u 
M59 GND n376 U267/a_2_6# GND nmos W=0.25u L=0.05u AD=0p PD=0u AS=0p PS=0u 
M60 n233 U267/a_2_6# GND GND nmos W=0.5u L=0.05u AD=0p PD=0u AS=0p PS=0u 
M61 U268/a_9_54# n307 U268/a_2_54# VDD pmos W=1u L=0.05u AD=0p PD=0u AS=0p PS=0u 
M62 VDD n276 U268/a_9_54# VDD pmos W=1u L=0.05u AD=0p PD=0u AS=0p PS=0u 
M63 n306 U268/a_2_54# VDD VDD pmos W=0.5u L=0.05u AD=0p PD=0u AS=0p PS=0u 
M64 U268/a_2_54# n307 GND GND nmos W=0.25u L=0.05u AD=0p PD=0u AS=0p PS=0u 
M65 GND n276 U268/a_2_54# GND nmos W=0.25u L=0.05u AD=0p PD=0u AS=0p PS=0u 
M66 n306 U268/a_2_54# GND GND nmos W=0.25u L=0.05u AD=0p PD=0u AS=0p PS=0u 
M67 n234 n306 VDD VDD pmos W=0.5u L=0.05u AD=0p PD=0u AS=0p PS=0u 
M68 n234 n306 GND GND nmos W=0.25u L=0.05u AD=0p PD=0u AS=0p PS=0u 
M69 U270/a_9_54# n316 U270/a_2_54# VDD pmos W=1u L=0.05u AD=0p PD=0u AS=0p PS=0u 
M70 VDD n282 U270/a_9_54# VDD pmos W=1u L=0.05u AD=0p PD=0u AS=0p PS=0u 
M71 n315 U270/a_2_54# VDD VDD pmos W=0.5u L=0.05u AD=0p PD=0u AS=0p PS=0u 
M72 U270/a_2_54# n316 GND GND nmos W=0.25u L=0.05u AD=0p PD=0u AS=0p PS=0u 
M73 GND n282 U270/a_2_54# GND nmos W=0.25u L=0.05u AD=0p PD=0u AS=0p PS=0u 
M74 n315 U270/a_2_54# GND GND nmos W=0.25u L=0.05u AD=0p PD=0u AS=0p PS=0u 
M75 n235 n315 VDD VDD pmos W=0.5u L=0.05u AD=0p PD=0u AS=0p PS=0u 
M76 n235 n315 GND GND nmos W=0.25u L=0.05u AD=0p PD=0u AS=0p PS=0u 
M77 U272/a_9_54# n286 U272/a_2_54# VDD pmos W=1u L=0.05u AD=0p PD=0u AS=0p PS=0u 
M78 VDD n277 U272/a_9_54# VDD pmos W=1u L=0.05u AD=0p PD=0u AS=0p PS=0u 
M79 n351 U272/a_2_54# VDD VDD pmos W=0.5u L=0.05u AD=0p PD=0u AS=0p PS=0u 
M80 U272/a_2_54# n286 GND GND nmos W=0.25u L=0.05u AD=0p PD=0u AS=0p PS=0u 
M81 GND n277 U272/a_2_54# GND nmos W=0.25u L=0.05u AD=0p PD=0u AS=0p PS=0u 
M82 n351 U272/a_2_54# GND GND nmos W=0.25u L=0.05u AD=0p PD=0u AS=0p PS=0u 
M83 n236 n351 VDD VDD pmos W=0.5u L=0.05u AD=0p PD=0u AS=0p PS=0u 
M84 n236 n351 GND GND nmos W=0.25u L=0.05u AD=0p PD=0u AS=0p PS=0u 
M85 U274/a_9_54# n288 U274/a_2_54# VDD pmos W=1u L=0.05u AD=0p PD=0u AS=0p PS=0u 
M86 VDD n283 U274/a_9_54# VDD pmos W=1u L=0.05u AD=0p PD=0u AS=0p PS=0u 
M87 n359 U274/a_2_54# VDD VDD pmos W=0.5u L=0.05u AD=0p PD=0u AS=0p PS=0u 
M88 U274/a_2_54# n288 GND GND nmos W=0.25u L=0.05u AD=0p PD=0u AS=0p PS=0u 
M89 GND n283 U274/a_2_54# GND nmos W=0.25u L=0.05u AD=0p PD=0u AS=0p PS=0u 
M90 n359 U274/a_2_54# GND GND nmos W=0.25u L=0.05u AD=0p PD=0u AS=0p PS=0u 
M91 n237 n359 VDD VDD pmos W=0.5u L=0.05u AD=0p PD=0u AS=0p PS=0u 
M92 n237 n359 GND GND nmos W=0.25u L=0.05u AD=0p PD=0u AS=0p PS=0u 
M93 n238 n305 VDD VDD pmos W=0.5u L=0.05u AD=0p PD=0u AS=0p PS=0u 
M94 n238 n305 GND GND nmos W=0.25u L=0.05u AD=0p PD=0u AS=0p PS=0u 
M95 n239 n350 VDD VDD pmos W=0.5u L=0.05u AD=0p PD=0u AS=0p PS=0u 
M96 n239 n350 GND GND nmos W=0.25u L=0.05u AD=0p PD=0u AS=0p PS=0u 
M97 U278/a_2_6# n353 VDD VDD pmos W=0.5u L=0.05u AD=0p PD=0u AS=0p PS=0u 
M98 VDD n340 U278/a_2_6# VDD pmos W=0.5u L=0.05u AD=0p PD=0u AS=0p PS=0u 
M99 n356 U278/a_2_6# VDD VDD pmos W=0.5u L=0.05u AD=0p PD=0u AS=0p PS=0u 
M100 U278/a_9_6# n353 U278/a_2_6# GND nmos W=0.5u L=0.05u AD=0p PD=0u AS=0p PS=0u 
M101 GND n340 U278/a_9_6# GND nmos W=0.5u L=0.05u AD=0p PD=0u AS=0p PS=0u 
M102 n356 U278/a_2_6# GND GND nmos W=0.25u L=0.05u AD=0p PD=0u AS=0p PS=0u 
M103 n240 n356 VDD VDD pmos W=0.5u L=0.05u AD=0p PD=0u AS=0p PS=0u 
M104 n240 n356 GND GND nmos W=0.25u L=0.05u AD=0p PD=0u AS=0p PS=0u 
M105 U280/a_2_6# n344 VDD VDD pmos W=0.5u L=0.05u AD=0p PD=0u AS=0p PS=0u 
M106 VDD n316 U280/a_2_6# VDD pmos W=0.5u L=0.05u AD=0p PD=0u AS=0p PS=0u 
M107 n346 U280/a_2_6# VDD VDD pmos W=0.5u L=0.05u AD=0p PD=0u AS=0p PS=0u 
M108 U280/a_9_6# n344 U280/a_2_6# GND nmos W=0.5u L=0.05u AD=0p PD=0u AS=0p PS=0u 
M109 GND n316 U280/a_9_6# GND nmos W=0.5u L=0.05u AD=0p PD=0u AS=0p PS=0u 
M110 n346 U280/a_2_6# GND GND nmos W=0.25u L=0.05u AD=0p PD=0u AS=0p PS=0u 
M111 n241 n346 VDD VDD pmos W=0.5u L=0.05u AD=0p PD=0u AS=0p PS=0u 
M112 n241 n346 GND GND nmos W=0.25u L=0.05u AD=0p PD=0u AS=0p PS=0u 
M113 U282/a_2_6# G36 VDD VDD pmos W=0.5u L=0.05u AD=0p PD=0u AS=0p PS=0u 
M114 VDD G41 U282/a_2_6# VDD pmos W=0.5u L=0.05u AD=0p PD=0u AS=0p PS=0u 
M115 n391 U282/a_2_6# VDD VDD pmos W=0.5u L=0.05u AD=0p PD=0u AS=0p PS=0u 
M116 U282/a_9_6# G36 U282/a_2_6# GND nmos W=0.5u L=0.05u AD=0p PD=0u AS=0p PS=0u 
M117 GND G41 U282/a_9_6# GND nmos W=0.5u L=0.05u AD=0p PD=0u AS=0p PS=0u 
M118 n391 U282/a_2_6# GND GND nmos W=0.25u L=0.05u AD=0p PD=0u AS=0p PS=0u 
M119 n242 n391 VDD VDD pmos W=0.5u L=0.05u AD=0p PD=0u AS=0p PS=0u 
M120 n242 n391 GND GND nmos W=0.25u L=0.05u AD=0p PD=0u AS=0p PS=0u 
M121 U284/a_2_6# G38 VDD VDD pmos W=0.5u L=0.05u AD=0p PD=0u AS=0p PS=0u 
M122 VDD G41 U284/a_2_6# VDD pmos W=0.5u L=0.05u AD=0p PD=0u AS=0p PS=0u 
M123 n438 U284/a_2_6# VDD VDD pmos W=0.5u L=0.05u AD=0p PD=0u AS=0p PS=0u 
M124 U284/a_9_6# G38 U284/a_2_6# GND nmos W=0.5u L=0.05u AD=0p PD=0u AS=0p PS=0u 
M125 GND G41 U284/a_9_6# GND nmos W=0.5u L=0.05u AD=0p PD=0u AS=0p PS=0u 
M126 n438 U284/a_2_6# GND GND nmos W=0.25u L=0.05u AD=0p PD=0u AS=0p PS=0u 
M127 n243 n438 VDD VDD pmos W=0.5u L=0.05u AD=0p PD=0u AS=0p PS=0u 
M128 n243 n438 GND GND nmos W=0.25u L=0.05u AD=0p PD=0u AS=0p PS=0u 
M129 U286/a_2_6# G37 VDD VDD pmos W=0.5u L=0.05u AD=0p PD=0u AS=0p PS=0u 
M130 VDD G41 U286/a_2_6# VDD pmos W=0.5u L=0.05u AD=0p PD=0u AS=0p PS=0u 
M131 n420 U286/a_2_6# VDD VDD pmos W=0.5u L=0.05u AD=0p PD=0u AS=0p PS=0u 
M132 U286/a_9_6# G37 U286/a_2_6# GND nmos W=0.5u L=0.05u AD=0p PD=0u AS=0p PS=0u 
M133 GND G41 U286/a_9_6# GND nmos W=0.5u L=0.05u AD=0p PD=0u AS=0p PS=0u 
M134 n420 U286/a_2_6# GND GND nmos W=0.25u L=0.05u AD=0p PD=0u AS=0p PS=0u 
M135 n244 n420 VDD VDD pmos W=0.5u L=0.05u AD=0p PD=0u AS=0p PS=0u 
M136 n244 n420 GND GND nmos W=0.25u L=0.05u AD=0p PD=0u AS=0p PS=0u 
M137 U288/a_2_6# G40 VDD VDD pmos W=0.5u L=0.05u AD=0p PD=0u AS=0p PS=0u 
M138 VDD G41 U288/a_2_6# VDD pmos W=0.5u L=0.05u AD=0p PD=0u AS=0p PS=0u 
M139 n429 U288/a_2_6# VDD VDD pmos W=0.5u L=0.05u AD=0p PD=0u AS=0p PS=0u 
M140 U288/a_9_6# G40 U288/a_2_6# GND nmos W=0.5u L=0.05u AD=0p PD=0u AS=0p PS=0u 
M141 GND G41 U288/a_9_6# GND nmos W=0.5u L=0.05u AD=0p PD=0u AS=0p PS=0u 
M142 n429 U288/a_2_6# GND GND nmos W=0.25u L=0.05u AD=0p PD=0u AS=0p PS=0u 
M143 n245 n429 VDD VDD pmos W=0.5u L=0.05u AD=0p PD=0u AS=0p PS=0u 
M144 n245 n429 GND GND nmos W=0.25u L=0.05u AD=0p PD=0u AS=0p PS=0u 
M145 U290/a_2_6# n361 VDD VDD pmos W=0.5u L=0.05u AD=0p PD=0u AS=0p PS=0u 
M146 VDD n336 U290/a_2_6# VDD pmos W=0.5u L=0.05u AD=0p PD=0u AS=0p PS=0u 
M147 n362 U290/a_2_6# VDD VDD pmos W=0.5u L=0.05u AD=0p PD=0u AS=0p PS=0u 
M148 U290/a_9_6# n361 U290/a_2_6# GND nmos W=0.5u L=0.05u AD=0p PD=0u AS=0p PS=0u 
M149 GND n336 U290/a_9_6# GND nmos W=0.5u L=0.05u AD=0p PD=0u AS=0p PS=0u 
M150 n362 U290/a_2_6# GND GND nmos W=0.25u L=0.05u AD=0p PD=0u AS=0p PS=0u 
M151 n246 n362 VDD VDD pmos W=0.5u L=0.05u AD=0p PD=0u AS=0p PS=0u 
M152 n246 n362 GND GND nmos W=0.25u L=0.05u AD=0p PD=0u AS=0p PS=0u 
M153 U292/a_2_6# n319 VDD VDD pmos W=0.5u L=0.05u AD=0p PD=0u AS=0p PS=0u 
M154 VDD n288 U292/a_2_6# VDD pmos W=0.5u L=0.05u AD=0p PD=0u AS=0p PS=0u 
M155 n320 U292/a_2_6# VDD VDD pmos W=0.5u L=0.05u AD=0p PD=0u AS=0p PS=0u 
M156 U292/a_9_6# n319 U292/a_2_6# GND nmos W=0.5u L=0.05u AD=0p PD=0u AS=0p PS=0u 
M157 GND n288 U292/a_9_6# GND nmos W=0.5u L=0.05u AD=0p PD=0u AS=0p PS=0u 
M158 n320 U292/a_2_6# GND GND nmos W=0.25u L=0.05u AD=0p PD=0u AS=0p PS=0u 
M159 n247 n320 VDD VDD pmos W=0.5u L=0.05u AD=0p PD=0u AS=0p PS=0u 
M160 n247 n320 GND GND nmos W=0.25u L=0.05u AD=0p PD=0u AS=0p PS=0u 
M161 U294/a_2_6# G41 VDD VDD pmos W=0.5u L=0.05u AD=0p PD=0u AS=0p PS=0u 
M162 VDD G39 U294/a_2_6# VDD pmos W=0.5u L=0.05u AD=0p PD=0u AS=0p PS=0u 
M163 n373 U294/a_2_6# VDD VDD pmos W=0.5u L=0.05u AD=0p PD=0u AS=0p PS=0u 
M164 U294/a_9_6# G41 U294/a_2_6# GND nmos W=0.5u L=0.05u AD=0p PD=0u AS=0p PS=0u 
M165 GND G39 U294/a_9_6# GND nmos W=0.5u L=0.05u AD=0p PD=0u AS=0p PS=0u 
M166 n373 U294/a_2_6# GND GND nmos W=0.25u L=0.05u AD=0p PD=0u AS=0p PS=0u 
M167 n248 n373 VDD VDD pmos W=0.5u L=0.05u AD=0p PD=0u AS=0p PS=0u 
M168 n248 n373 GND GND nmos W=0.25u L=0.05u AD=0p PD=0u AS=0p PS=0u 
M169 U296/a_2_6# G35 VDD VDD pmos W=0.5u L=0.05u AD=0p PD=0u AS=0p PS=0u 
M170 VDD G41 U296/a_2_6# VDD pmos W=0.5u L=0.05u AD=0p PD=0u AS=0p PS=0u 
M171 n410 U296/a_2_6# VDD VDD pmos W=0.5u L=0.05u AD=0p PD=0u AS=0p PS=0u 
M172 U296/a_9_6# G35 U296/a_2_6# GND nmos W=0.5u L=0.05u AD=0p PD=0u AS=0p PS=0u 
M173 GND G41 U296/a_9_6# GND nmos W=0.5u L=0.05u AD=0p PD=0u AS=0p PS=0u 
M174 n410 U296/a_2_6# GND GND nmos W=0.25u L=0.05u AD=0p PD=0u AS=0p PS=0u 
M175 n249 n410 VDD VDD pmos W=0.5u L=0.05u AD=0p PD=0u AS=0p PS=0u 
M176 n249 n410 GND GND nmos W=0.25u L=0.05u AD=0p PD=0u AS=0p PS=0u 
M177 U298/a_2_6# n361 VDD VDD pmos W=0.5u L=0.05u AD=0p PD=0u AS=0p PS=0u 
M178 VDD n307 U298/a_2_6# VDD pmos W=0.5u L=0.05u AD=0p PD=0u AS=0p PS=0u 
M179 n360 U298/a_2_6# VDD VDD pmos W=0.5u L=0.05u AD=0p PD=0u AS=0p PS=0u 
M180 U298/a_9_6# n361 U298/a_2_6# GND nmos W=0.5u L=0.05u AD=0p PD=0u AS=0p PS=0u 
M181 GND n307 U298/a_9_6# GND nmos W=0.5u L=0.05u AD=0p PD=0u AS=0p PS=0u 
M182 n360 U298/a_2_6# GND GND nmos W=0.25u L=0.05u AD=0p PD=0u AS=0p PS=0u 
M183 n250 n360 VDD VDD pmos W=0.5u L=0.05u AD=0p PD=0u AS=0p PS=0u 
M184 n250 n360 GND GND nmos W=0.25u L=0.05u AD=0p PD=0u AS=0p PS=0u 
M185 U300/a_2_6# n353 VDD VDD pmos W=0.5u L=0.05u AD=0p PD=0u AS=0p PS=0u 
M186 VDD n316 U300/a_2_6# VDD pmos W=0.5u L=0.05u AD=0p PD=0u AS=0p PS=0u 
M187 n355 U300/a_2_6# VDD VDD pmos W=0.5u L=0.05u AD=0p PD=0u AS=0p PS=0u 
M188 U300/a_9_6# n353 U300/a_2_6# GND nmos W=0.5u L=0.05u AD=0p PD=0u AS=0p PS=0u 
M189 GND n316 U300/a_9_6# GND nmos W=0.5u L=0.05u AD=0p PD=0u AS=0p PS=0u 
M190 n355 U300/a_2_6# GND GND nmos W=0.25u L=0.05u AD=0p PD=0u AS=0p PS=0u 
M191 n251 n355 VDD VDD pmos W=0.5u L=0.05u AD=0p PD=0u AS=0p PS=0u 
M192 n251 n355 GND GND nmos W=0.25u L=0.05u AD=0p PD=0u AS=0p PS=0u 
M193 U302/a_2_6# n344 VDD VDD pmos W=0.5u L=0.05u AD=0p PD=0u AS=0p PS=0u 
M194 VDD n340 U302/a_2_6# VDD pmos W=0.5u L=0.05u AD=0p PD=0u AS=0p PS=0u 
M195 n348 U302/a_2_6# VDD VDD pmos W=0.5u L=0.05u AD=0p PD=0u AS=0p PS=0u 
M196 U302/a_9_6# n344 U302/a_2_6# GND nmos W=0.5u L=0.05u AD=0p PD=0u AS=0p PS=0u 
M197 GND n340 U302/a_9_6# GND nmos W=0.5u L=0.05u AD=0p PD=0u AS=0p PS=0u 
M198 n348 U302/a_2_6# GND GND nmos W=0.25u L=0.05u AD=0p PD=0u AS=0p PS=0u 
M199 n252 n348 VDD VDD pmos W=0.5u L=0.05u AD=0p PD=0u AS=0p PS=0u 
M200 n252 n348 GND GND nmos W=0.25u L=0.05u AD=0p PD=0u AS=0p PS=0u 
M201 U304/a_2_6# n319 VDD VDD pmos W=0.5u L=0.05u AD=0p PD=0u AS=0p PS=0u 
M202 VDD n286 U304/a_2_6# VDD pmos W=0.5u L=0.05u AD=0p PD=0u AS=0p PS=0u 
M203 n318 U304/a_2_6# VDD VDD pmos W=0.5u L=0.05u AD=0p PD=0u AS=0p PS=0u 
M204 U304/a_9_6# n319 U304/a_2_6# GND nmos W=0.5u L=0.05u AD=0p PD=0u AS=0p PS=0u 
M205 GND n286 U304/a_9_6# GND nmos W=0.5u L=0.05u AD=0p PD=0u AS=0p PS=0u 
M206 n318 U304/a_2_6# GND GND nmos W=0.25u L=0.05u AD=0p PD=0u AS=0p PS=0u 
M207 n253 n318 VDD VDD pmos W=0.5u L=0.05u AD=0p PD=0u AS=0p PS=0u 
M208 n253 n318 GND GND nmos W=0.25u L=0.05u AD=0p PD=0u AS=0p PS=0u 
M209 U306/a_2_6# n310 VDD VDD pmos W=0.5u L=0.05u AD=0p PD=0u AS=0p PS=0u 
M210 VDD n290 U306/a_2_6# VDD pmos W=0.5u L=0.05u AD=0p PD=0u AS=0p PS=0u 
M211 n312 U306/a_2_6# VDD VDD pmos W=0.5u L=0.05u AD=0p PD=0u AS=0p PS=0u 
M212 U306/a_9_6# n310 U306/a_2_6# GND nmos W=0.5u L=0.05u AD=0p PD=0u AS=0p PS=0u 
M213 GND n290 U306/a_9_6# GND nmos W=0.5u L=0.05u AD=0p PD=0u AS=0p PS=0u 
M214 n312 U306/a_2_6# GND GND nmos W=0.25u L=0.05u AD=0p PD=0u AS=0p PS=0u 
M215 n254 n312 VDD VDD pmos W=0.5u L=0.05u AD=0p PD=0u AS=0p PS=0u 
M216 n254 n312 GND GND nmos W=0.25u L=0.05u AD=0p PD=0u AS=0p PS=0u 
M217 U308/a_2_6# n300 VDD VDD pmos W=0.5u L=0.05u AD=0p PD=0u AS=0p PS=0u 
M218 VDD n292 U308/a_2_6# VDD pmos W=0.5u L=0.05u AD=0p PD=0u AS=0p PS=0u 
M219 n303 U308/a_2_6# VDD VDD pmos W=0.5u L=0.05u AD=0p PD=0u AS=0p PS=0u 
M220 U308/a_9_6# n300 U308/a_2_6# GND nmos W=0.5u L=0.05u AD=0p PD=0u AS=0p PS=0u 
M221 GND n292 U308/a_9_6# GND nmos W=0.5u L=0.05u AD=0p PD=0u AS=0p PS=0u 
M222 n303 U308/a_2_6# GND GND nmos W=0.25u L=0.05u AD=0p PD=0u AS=0p PS=0u 
M223 n255 n303 VDD VDD pmos W=0.5u L=0.05u AD=0p PD=0u AS=0p PS=0u 
M224 n255 n303 GND GND nmos W=0.25u L=0.05u AD=0p PD=0u AS=0p PS=0u 
M225 U310/a_2_6# n334 VDD VDD pmos W=0.5u L=0.05u AD=0p PD=0u AS=0p PS=0u 
M226 VDD n340 U310/a_2_6# VDD pmos W=0.5u L=0.05u AD=0p PD=0u AS=0p PS=0u 
M227 n338 U310/a_2_6# VDD VDD pmos W=0.5u L=0.05u AD=0p PD=0u AS=0p PS=0u 
M228 U310/a_9_6# n334 U310/a_2_6# GND nmos W=0.5u L=0.05u AD=0p PD=0u AS=0p PS=0u 
M229 GND n340 U310/a_9_6# GND nmos W=0.5u L=0.05u AD=0p PD=0u AS=0p PS=0u 
M230 n338 U310/a_2_6# GND GND nmos W=0.25u L=0.05u AD=0p PD=0u AS=0p PS=0u 
M231 n256 n338 VDD VDD pmos W=0.5u L=0.05u AD=0p PD=0u AS=0p PS=0u 
M232 n256 n338 GND GND nmos W=0.25u L=0.05u AD=0p PD=0u AS=0p PS=0u 
M233 U312/a_2_6# G34 VDD VDD pmos W=0.5u L=0.05u AD=0p PD=0u AS=0p PS=0u 
M234 VDD G41 U312/a_2_6# VDD pmos W=0.5u L=0.05u AD=0p PD=0u AS=0p PS=0u 
M235 n383 U312/a_2_6# VDD VDD pmos W=0.5u L=0.05u AD=0p PD=0u AS=0p PS=0u 
M236 U312/a_9_6# G34 U312/a_2_6# GND nmos W=0.5u L=0.05u AD=0p PD=0u AS=0p PS=0u 
M237 GND G41 U312/a_9_6# GND nmos W=0.5u L=0.05u AD=0p PD=0u AS=0p PS=0u 
M238 n383 U312/a_2_6# GND GND nmos W=0.25u L=0.05u AD=0p PD=0u AS=0p PS=0u 
M239 n257 n383 VDD VDD pmos W=0.5u L=0.05u AD=0p PD=0u AS=0p PS=0u 
M240 n257 n383 GND GND nmos W=0.25u L=0.05u AD=0p PD=0u AS=0p PS=0u 
M241 U314/a_2_6# n353 VDD VDD pmos W=0.5u L=0.05u AD=0p PD=0u AS=0p PS=0u 
M242 VDD n307 U314/a_2_6# VDD pmos W=0.5u L=0.05u AD=0p PD=0u AS=0p PS=0u 
M243 n352 U314/a_2_6# VDD VDD pmos W=0.5u L=0.05u AD=0p PD=0u AS=0p PS=0u 
M244 U314/a_9_6# n353 U314/a_2_6# GND nmos W=0.5u L=0.05u AD=0p PD=0u AS=0p PS=0u 
M245 GND n307 U314/a_9_6# GND nmos W=0.5u L=0.05u AD=0p PD=0u AS=0p PS=0u 
M246 n352 U314/a_2_6# GND GND nmos W=0.25u L=0.05u AD=0p PD=0u AS=0p PS=0u 
M247 n258 n352 VDD VDD pmos W=0.5u L=0.05u AD=0p PD=0u AS=0p PS=0u 
M248 n258 n352 GND GND nmos W=0.25u L=0.05u AD=0p PD=0u AS=0p PS=0u 
M249 U316/a_2_6# n344 VDD VDD pmos W=0.5u L=0.05u AD=0p PD=0u AS=0p PS=0u 
M250 VDD n336 U316/a_2_6# VDD pmos W=0.5u L=0.05u AD=0p PD=0u AS=0p PS=0u 
M251 n345 U316/a_2_6# VDD VDD pmos W=0.5u L=0.05u AD=0p PD=0u AS=0p PS=0u 
M252 U316/a_9_6# n344 U316/a_2_6# GND nmos W=0.5u L=0.05u AD=0p PD=0u AS=0p PS=0u 
M253 GND n336 U316/a_9_6# GND nmos W=0.5u L=0.05u AD=0p PD=0u AS=0p PS=0u 
M254 n345 U316/a_2_6# GND GND nmos W=0.25u L=0.05u AD=0p PD=0u AS=0p PS=0u 
M255 n259 n345 VDD VDD pmos W=0.5u L=0.05u AD=0p PD=0u AS=0p PS=0u 
M256 n259 n345 GND GND nmos W=0.25u L=0.05u AD=0p PD=0u AS=0p PS=0u 
M257 U318/a_2_6# n319 VDD VDD pmos W=0.5u L=0.05u AD=0p PD=0u AS=0p PS=0u 
M258 VDD n290 U318/a_2_6# VDD pmos W=0.5u L=0.05u AD=0p PD=0u AS=0p PS=0u 
M259 n321 U318/a_2_6# VDD VDD pmos W=0.5u L=0.05u AD=0p PD=0u AS=0p PS=0u 
M260 U318/a_9_6# n319 U318/a_2_6# GND nmos W=0.5u L=0.05u AD=0p PD=0u AS=0p PS=0u 
M261 GND n290 U318/a_9_6# GND nmos W=0.5u L=0.05u AD=0p PD=0u AS=0p PS=0u 
M262 n321 U318/a_2_6# GND GND nmos W=0.25u L=0.05u AD=0p PD=0u AS=0p PS=0u 
M263 n260 n321 VDD VDD pmos W=0.5u L=0.05u AD=0p PD=0u AS=0p PS=0u 
M264 n260 n321 GND GND nmos W=0.25u L=0.05u AD=0p PD=0u AS=0p PS=0u 
M265 U320/a_2_6# n310 VDD VDD pmos W=0.5u L=0.05u AD=0p PD=0u AS=0p PS=0u 
M266 VDD n286 U320/a_2_6# VDD pmos W=0.5u L=0.05u AD=0p PD=0u AS=0p PS=0u 
M267 n309 U320/a_2_6# VDD VDD pmos W=0.5u L=0.05u AD=0p PD=0u AS=0p PS=0u 
M268 U320/a_9_6# n310 U320/a_2_6# GND nmos W=0.5u L=0.05u AD=0p PD=0u AS=0p PS=0u 
M269 GND n286 U320/a_9_6# GND nmos W=0.5u L=0.05u AD=0p PD=0u AS=0p PS=0u 
M270 n309 U320/a_2_6# GND GND nmos W=0.25u L=0.05u AD=0p PD=0u AS=0p PS=0u 
M271 n261 n309 VDD VDD pmos W=0.5u L=0.05u AD=0p PD=0u AS=0p PS=0u 
M272 n261 n309 GND GND nmos W=0.25u L=0.05u AD=0p PD=0u AS=0p PS=0u 
M273 U322/a_2_6# n300 VDD VDD pmos W=0.5u L=0.05u AD=0p PD=0u AS=0p PS=0u 
M274 VDD n288 U322/a_2_6# VDD pmos W=0.5u L=0.05u AD=0p PD=0u AS=0p PS=0u 
M275 n301 U322/a_2_6# VDD VDD pmos W=0.5u L=0.05u AD=0p PD=0u AS=0p PS=0u 
M276 U322/a_9_6# n300 U322/a_2_6# GND nmos W=0.5u L=0.05u AD=0p PD=0u AS=0p PS=0u 
M277 GND n288 U322/a_9_6# GND nmos W=0.5u L=0.05u AD=0p PD=0u AS=0p PS=0u 
M278 n301 U322/a_2_6# GND GND nmos W=0.25u L=0.05u AD=0p PD=0u AS=0p PS=0u 
M279 n262 n301 VDD VDD pmos W=0.5u L=0.05u AD=0p PD=0u AS=0p PS=0u 
M280 n262 n301 GND GND nmos W=0.25u L=0.05u AD=0p PD=0u AS=0p PS=0u 
M281 U324/a_2_6# n285 VDD VDD pmos W=0.5u L=0.05u AD=0p PD=0u AS=0p PS=0u 
M282 VDD n292 U324/a_2_6# VDD pmos W=0.5u L=0.05u AD=0p PD=0u AS=0p PS=0u 
M283 n291 U324/a_2_6# VDD VDD pmos W=0.5u L=0.05u AD=0p PD=0u AS=0p PS=0u 
M284 U324/a_9_6# n285 U324/a_2_6# GND nmos W=0.5u L=0.05u AD=0p PD=0u AS=0p PS=0u 
M285 GND n292 U324/a_9_6# GND nmos W=0.5u L=0.05u AD=0p PD=0u AS=0p PS=0u 
M286 n291 U324/a_2_6# GND GND nmos W=0.25u L=0.05u AD=0p PD=0u AS=0p PS=0u 
M287 n263 n291 VDD VDD pmos W=0.5u L=0.05u AD=0p PD=0u AS=0p PS=0u 
M288 n263 n291 GND GND nmos W=0.25u L=0.05u AD=0p PD=0u AS=0p PS=0u 
M289 U326/a_2_6# G33 VDD VDD pmos W=0.5u L=0.05u AD=0p PD=0u AS=0p PS=0u 
M290 VDD G41 U326/a_2_6# VDD pmos W=0.5u L=0.05u AD=0p PD=0u AS=0p PS=0u 
M291 n400 U326/a_2_6# VDD VDD pmos W=0.5u L=0.05u AD=0p PD=0u AS=0p PS=0u 
M292 U326/a_9_6# G33 U326/a_2_6# GND nmos W=0.5u L=0.05u AD=0p PD=0u AS=0p PS=0u 
M293 GND G41 U326/a_9_6# GND nmos W=0.5u L=0.05u AD=0p PD=0u AS=0p PS=0u 
M294 n400 U326/a_2_6# GND GND nmos W=0.25u L=0.05u AD=0p PD=0u AS=0p PS=0u 
M295 n264 n400 VDD VDD pmos W=0.5u L=0.05u AD=0p PD=0u AS=0p PS=0u 
M296 n264 n400 GND GND nmos W=0.25u L=0.05u AD=0p PD=0u AS=0p PS=0u 
M297 U328/a_2_6# n353 VDD VDD pmos W=0.5u L=0.05u AD=0p PD=0u AS=0p PS=0u 
M298 VDD n336 U328/a_2_6# VDD pmos W=0.5u L=0.05u AD=0p PD=0u AS=0p PS=0u 
M299 n354 U328/a_2_6# VDD VDD pmos W=0.5u L=0.05u AD=0p PD=0u AS=0p PS=0u 
M300 U328/a_9_6# n353 U328/a_2_6# GND nmos W=0.5u L=0.05u AD=0p PD=0u AS=0p PS=0u 
M301 GND n336 U328/a_9_6# GND nmos W=0.5u L=0.05u AD=0p PD=0u AS=0p PS=0u 
M302 n354 U328/a_2_6# GND GND nmos W=0.25u L=0.05u AD=0p PD=0u AS=0p PS=0u 
M303 n265 n354 VDD VDD pmos W=0.5u L=0.05u AD=0p PD=0u AS=0p PS=0u 
M304 n265 n354 GND GND nmos W=0.25u L=0.05u AD=0p PD=0u AS=0p PS=0u 
M305 U330/a_2_6# n344 VDD VDD pmos W=0.5u L=0.05u AD=0p PD=0u AS=0p PS=0u 
M306 VDD n307 U330/a_2_6# VDD pmos W=0.5u L=0.05u AD=0p PD=0u AS=0p PS=0u 
M307 n343 U330/a_2_6# VDD VDD pmos W=0.5u L=0.05u AD=0p PD=0u AS=0p PS=0u 
M308 U330/a_9_6# n344 U330/a_2_6# GND nmos W=0.5u L=0.05u AD=0p PD=0u AS=0p PS=0u 
M309 GND n307 U330/a_9_6# GND nmos W=0.5u L=0.05u AD=0p PD=0u AS=0p PS=0u 
M310 n343 U330/a_2_6# GND GND nmos W=0.25u L=0.05u AD=0p PD=0u AS=0p PS=0u 
M311 n266 n343 VDD VDD pmos W=0.5u L=0.05u AD=0p PD=0u AS=0p PS=0u 
M312 n266 n343 GND GND nmos W=0.25u L=0.05u AD=0p PD=0u AS=0p PS=0u 
M313 U332/a_2_6# n334 VDD VDD pmos W=0.5u L=0.05u AD=0p PD=0u AS=0p PS=0u 
M314 VDD n316 U332/a_2_6# VDD pmos W=0.5u L=0.05u AD=0p PD=0u AS=0p PS=0u 
M315 n337 U332/a_2_6# VDD VDD pmos W=0.5u L=0.05u AD=0p PD=0u AS=0p PS=0u 
M316 U332/a_9_6# n334 U332/a_2_6# GND nmos W=0.5u L=0.05u AD=0p PD=0u AS=0p PS=0u 
M317 GND n316 U332/a_9_6# GND nmos W=0.5u L=0.05u AD=0p PD=0u AS=0p PS=0u 
M318 n337 U332/a_2_6# GND GND nmos W=0.25u L=0.05u AD=0p PD=0u AS=0p PS=0u 
M319 n267 n337 VDD VDD pmos W=0.5u L=0.05u AD=0p PD=0u AS=0p PS=0u 
M320 n267 n337 GND GND nmos W=0.25u L=0.05u AD=0p PD=0u AS=0p PS=0u 
M321 U334/a_2_6# n319 VDD VDD pmos W=0.5u L=0.05u AD=0p PD=0u AS=0p PS=0u 
M322 VDD n292 U334/a_2_6# VDD pmos W=0.5u L=0.05u AD=0p PD=0u AS=0p PS=0u 
M323 n322 U334/a_2_6# VDD VDD pmos W=0.5u L=0.05u AD=0p PD=0u AS=0p PS=0u 
M324 U334/a_9_6# n319 U334/a_2_6# GND nmos W=0.5u L=0.05u AD=0p PD=0u AS=0p PS=0u 
M325 GND n292 U334/a_9_6# GND nmos W=0.5u L=0.05u AD=0p PD=0u AS=0p PS=0u 
M326 n322 U334/a_2_6# GND GND nmos W=0.25u L=0.05u AD=0p PD=0u AS=0p PS=0u 
M327 n268 n322 VDD VDD pmos W=0.5u L=0.05u AD=0p PD=0u AS=0p PS=0u 
M328 n268 n322 GND GND nmos W=0.25u L=0.05u AD=0p PD=0u AS=0p PS=0u 
M329 U336/a_2_6# n310 VDD VDD pmos W=0.5u L=0.05u AD=0p PD=0u AS=0p PS=0u 
M330 VDD n288 U336/a_2_6# VDD pmos W=0.5u L=0.05u AD=0p PD=0u AS=0p PS=0u 
M331 n311 U336/a_2_6# VDD VDD pmos W=0.5u L=0.05u AD=0p PD=0u AS=0p PS=0u 
M332 U336/a_9_6# n310 U336/a_2_6# GND nmos W=0.5u L=0.05u AD=0p PD=0u AS=0p PS=0u 
M333 GND n288 U336/a_9_6# GND nmos W=0.5u L=0.05u AD=0p PD=0u AS=0p PS=0u 
M334 n311 U336/a_2_6# GND GND nmos W=0.25u L=0.05u AD=0p PD=0u AS=0p PS=0u 
M335 n269 n311 VDD VDD pmos W=0.5u L=0.05u AD=0p PD=0u AS=0p PS=0u 
M336 n269 n311 GND GND nmos W=0.25u L=0.05u AD=0p PD=0u AS=0p PS=0u 
M337 U338/a_2_6# n300 VDD VDD pmos W=0.5u L=0.05u AD=0p PD=0u AS=0p PS=0u 
M338 VDD n286 U338/a_2_6# VDD pmos W=0.5u L=0.05u AD=0p PD=0u AS=0p PS=0u 
M339 n299 U338/a_2_6# VDD VDD pmos W=0.5u L=0.05u AD=0p PD=0u AS=0p PS=0u 
M340 U338/a_9_6# n300 U338/a_2_6# GND nmos W=0.5u L=0.05u AD=0p PD=0u AS=0p PS=0u 
M341 GND n286 U338/a_9_6# GND nmos W=0.5u L=0.05u AD=0p PD=0u AS=0p PS=0u 
M342 n299 U338/a_2_6# GND GND nmos W=0.25u L=0.05u AD=0p PD=0u AS=0p PS=0u 
M343 n270 n299 VDD VDD pmos W=0.5u L=0.05u AD=0p PD=0u AS=0p PS=0u 
M344 n270 n299 GND GND nmos W=0.25u L=0.05u AD=0p PD=0u AS=0p PS=0u 
M345 U340/a_2_6# n285 VDD VDD pmos W=0.5u L=0.05u AD=0p PD=0u AS=0p PS=0u 
M346 VDD n290 U340/a_2_6# VDD pmos W=0.5u L=0.05u AD=0p PD=0u AS=0p PS=0u 
M347 n289 U340/a_2_6# VDD VDD pmos W=0.5u L=0.05u AD=0p PD=0u AS=0p PS=0u 
M348 U340/a_9_6# n285 U340/a_2_6# GND nmos W=0.5u L=0.05u AD=0p PD=0u AS=0p PS=0u 
M349 GND n290 U340/a_9_6# GND nmos W=0.5u L=0.05u AD=0p PD=0u AS=0p PS=0u 
M350 n289 U340/a_2_6# GND GND nmos W=0.25u L=0.05u AD=0p PD=0u AS=0p PS=0u 
M351 n271 n289 VDD VDD pmos W=0.5u L=0.05u AD=0p PD=0u AS=0p PS=0u 
M352 n271 n289 GND GND nmos W=0.25u L=0.05u AD=0p PD=0u AS=0p PS=0u 
M353 U342/a_2_6# n361 VDD VDD pmos W=0.5u L=0.05u AD=0p PD=0u AS=0p PS=0u 
M354 VDD n340 U342/a_2_6# VDD pmos W=0.5u L=0.05u AD=0p PD=0u AS=0p PS=0u 
M355 n364 U342/a_2_6# VDD VDD pmos W=0.5u L=0.05u AD=0p PD=0u AS=0p PS=0u 
M356 U342/a_9_6# n361 U342/a_2_6# GND nmos W=0.5u L=0.05u AD=0p PD=0u AS=0p PS=0u 
M357 GND n340 U342/a_9_6# GND nmos W=0.5u L=0.05u AD=0p PD=0u AS=0p PS=0u 
M358 n364 U342/a_2_6# GND GND nmos W=0.25u L=0.05u AD=0p PD=0u AS=0p PS=0u 
M359 n272 n364 VDD VDD pmos W=0.5u L=0.05u AD=0p PD=0u AS=0p PS=0u 
M360 n272 n364 GND GND nmos W=0.25u L=0.05u AD=0p PD=0u AS=0p PS=0u 
M361 U344/a_2_6# n334 VDD VDD pmos W=0.5u L=0.05u AD=0p PD=0u AS=0p PS=0u 
M362 VDD n307 U344/a_2_6# VDD pmos W=0.5u L=0.05u AD=0p PD=0u AS=0p PS=0u 
M363 n333 U344/a_2_6# VDD VDD pmos W=0.5u L=0.05u AD=0p PD=0u AS=0p PS=0u 
M364 U344/a_9_6# n334 U344/a_2_6# GND nmos W=0.5u L=0.05u AD=0p PD=0u AS=0p PS=0u 
M365 GND n307 U344/a_9_6# GND nmos W=0.5u L=0.05u AD=0p PD=0u AS=0p PS=0u 
M366 n333 U344/a_2_6# GND GND nmos W=0.25u L=0.05u AD=0p PD=0u AS=0p PS=0u 
M367 n273 n333 VDD VDD pmos W=0.5u L=0.05u AD=0p PD=0u AS=0p PS=0u 
M368 n273 n333 GND GND nmos W=0.25u L=0.05u AD=0p PD=0u AS=0p PS=0u 
M369 U346/a_2_6# n310 VDD VDD pmos W=0.5u L=0.05u AD=0p PD=0u AS=0p PS=0u 
M370 VDD n292 U346/a_2_6# VDD pmos W=0.5u L=0.05u AD=0p PD=0u AS=0p PS=0u 
M371 n313 U346/a_2_6# VDD VDD pmos W=0.5u L=0.05u AD=0p PD=0u AS=0p PS=0u 
M372 U346/a_9_6# n310 U346/a_2_6# GND nmos W=0.5u L=0.05u AD=0p PD=0u AS=0p PS=0u 
M373 GND n292 U346/a_9_6# GND nmos W=0.5u L=0.05u AD=0p PD=0u AS=0p PS=0u 
M374 n313 U346/a_2_6# GND GND nmos W=0.25u L=0.05u AD=0p PD=0u AS=0p PS=0u 
M375 n274 n313 VDD VDD pmos W=0.5u L=0.05u AD=0p PD=0u AS=0p PS=0u 
M376 n274 n313 GND GND nmos W=0.25u L=0.05u AD=0p PD=0u AS=0p PS=0u 
M377 U348/a_2_6# n285 VDD VDD pmos W=0.5u L=0.05u AD=0p PD=0u AS=0p PS=0u 
M378 VDD n286 U348/a_2_6# VDD pmos W=0.5u L=0.05u AD=0p PD=0u AS=0p PS=0u 
M379 n284 U348/a_2_6# VDD VDD pmos W=0.5u L=0.05u AD=0p PD=0u AS=0p PS=0u 
M380 U348/a_9_6# n285 U348/a_2_6# GND nmos W=0.5u L=0.05u AD=0p PD=0u AS=0p PS=0u 
M381 GND n286 U348/a_9_6# GND nmos W=0.5u L=0.05u AD=0p PD=0u AS=0p PS=0u 
M382 n284 U348/a_2_6# GND GND nmos W=0.25u L=0.05u AD=0p PD=0u AS=0p PS=0u 
M383 n275 n284 VDD VDD pmos W=0.5u L=0.05u AD=0p PD=0u AS=0p PS=0u 
M384 n275 n284 GND GND nmos W=0.25u L=0.05u AD=0p PD=0u AS=0p PS=0u 
M385 U350/a_2_6# n336 VDD VDD pmos W=0.5u L=0.05u AD=0p PD=0u AS=0p PS=0u 
M386 VDD n316 U350/a_2_6# VDD pmos W=0.5u L=0.05u AD=0p PD=0u AS=0p PS=0u 
M387 n308 U350/a_2_6# VDD VDD pmos W=0.5u L=0.05u AD=0p PD=0u AS=0p PS=0u 
M388 U350/a_9_6# n336 U350/a_2_6# GND nmos W=0.5u L=0.05u AD=0p PD=0u AS=0p PS=0u 
M389 GND n316 U350/a_9_6# GND nmos W=0.5u L=0.05u AD=0p PD=0u AS=0p PS=0u 
M390 n308 U350/a_2_6# GND GND nmos W=0.25u L=0.05u AD=0p PD=0u AS=0p PS=0u 
M391 n276 n308 VDD VDD pmos W=0.5u L=0.05u AD=0p PD=0u AS=0p PS=0u 
M392 n276 n308 GND GND nmos W=0.25u L=0.05u AD=0p PD=0u AS=0p PS=0u 
M393 U352/a_2_6# n290 VDD VDD pmos W=0.5u L=0.05u AD=0p PD=0u AS=0p PS=0u 
M394 VDD n288 U352/a_2_6# VDD pmos W=0.5u L=0.05u AD=0p PD=0u AS=0p PS=0u 
M395 n328 U352/a_2_6# VDD VDD pmos W=0.5u L=0.05u AD=0p PD=0u AS=0p PS=0u 
M396 U352/a_9_6# n290 U352/a_2_6# GND nmos W=0.5u L=0.05u AD=0p PD=0u AS=0p PS=0u 
M397 GND n288 U352/a_9_6# GND nmos W=0.5u L=0.05u AD=0p PD=0u AS=0p PS=0u 
M398 n328 U352/a_2_6# GND GND nmos W=0.25u L=0.05u AD=0p PD=0u AS=0p PS=0u 
M399 n277 n328 VDD VDD pmos W=0.5u L=0.05u AD=0p PD=0u AS=0p PS=0u 